Version 4
SHEET 1 880 680
WIRE 464 -128 64 -128
WIRE 464 -112 80 -112
WIRE 464 -96 96 -96
WIRE 464 -80 112 -80
WIRE 464 -64 128 -64
WIRE 192 -16 -176 -16
WIRE -1008 16 -1040 16
WIRE -832 16 -864 16
WIRE -176 16 -176 -16
WIRE -112 16 -176 16
WIRE 64 16 64 -128
WIRE 64 16 48 16
WIRE 192 16 64 16
WIRE -112 48 -272 48
WIRE 80 48 80 -112
WIRE 80 48 48 48
WIRE 192 48 80 48
WIRE -1008 80 -1008 16
WIRE -864 80 -864 16
WIRE 96 80 96 -96
WIRE 96 80 48 80
WIRE 192 80 96 80
WIRE 400 96 336 96
WIRE -112 112 -336 112
WIRE 112 112 112 -80
WIRE 112 112 48 112
WIRE 192 112 112 112
WIRE -112 144 -144 144
WIRE 128 144 128 -64
WIRE 128 144 48 144
WIRE 192 144 128 144
WIRE -1008 176 -1008 160
WIRE -928 176 -1008 176
WIRE -864 176 -864 160
WIRE -864 176 -928 176
WIRE -1008 192 -1040 192
WIRE -832 192 -864 192
WIRE -1008 208 -1008 192
WIRE -144 208 -144 144
WIRE -144 208 -336 208
WIRE 144 208 -144 208
WIRE 192 208 144 208
WIRE -1152 224 -1152 144
WIRE -864 240 -864 192
WIRE 400 288 400 96
WIRE 400 288 160 288
WIRE 144 304 144 208
WIRE 272 304 144 304
WIRE -1008 320 -1008 288
WIRE -1152 336 -1152 304
WIRE -1008 336 -1008 320
WIRE -1008 336 -1152 336
WIRE -928 336 -928 176
WIRE -928 336 -1008 336
WIRE -864 336 -864 320
WIRE -864 336 -928 336
WIRE 272 352 272 304
WIRE 160 368 160 288
WIRE 240 368 160 368
WIRE 368 384 304 384
WIRE 240 400 128 400
WIRE -176 416 -176 16
WIRE -32 416 -176 416
WIRE 128 432 128 400
WIRE 128 432 112 432
WIRE 272 432 272 416
WIRE -32 448 -336 448
WIRE -272 576 -272 48
WIRE 368 576 368 384
WIRE 368 576 -272 576
FLAG -928 336 0
FLAG -832 192 VDD
IOPIN -832 192 In
FLAG -832 16 com
IOPIN -832 16 In
FLAG -1040 16 CLOCK
IOPIN -1040 16 In
FLAG -1040 192 PRESET
IOPIN -1040 192 In
FLAG -1008 320 GND
IOPIN -1008 320 In
FLAG -1152 144 Vin
IOPIN -1152 144 In
FLAG 272 432 GND
IOPIN 272 432 In
FLAG -336 112 PRESET
IOPIN -336 112 In
FLAG -112 80 GND
IOPIN -112 80 In
FLAG 192 176 GND
IOPIN 192 176 In
FLAG -336 448 Vin
IOPIN -336 448 In
FLAG 464 -128 d0
IOPIN 464 -128 Out
FLAG 464 -112 d1
IOPIN 464 -112 Out
FLAG 464 -96 d2
IOPIN 464 -96 Out
FLAG 464 -80 d3
IOPIN 464 -80 Out
FLAG 464 -64 d4
IOPIN 464 -64 Out
FLAG -336 208 VDD
IOPIN -336 208 In
SYMBOL SARupdated -32 80 R0
SYMATTR InstName SAR
SYMBOL R2RDACupdated 256 96 R0
SYMATTR InstName R2RDAC
SYMBOL sH1 32 432 R0
SYMATTR InstName S/H
SYMBOL OpAmps\\OP07 272 320 R0
SYMATTR InstName U1
SYMBOL voltage -1008 64 R0
WINDOW 123 0 0 Left 0
WINDOW 39 0 0 Left 0
SYMATTR InstName V1
SYMATTR Value PULSE(0 5 0 0 0 0.25u 0.5u)
SYMBOL voltage -1008 192 R0
WINDOW 3 24 44 Left 2
WINDOW 123 0 0 Left 0
WINDOW 39 0 0 Left 0
SYMATTR InstName V2
SYMATTR Value PULSE(5 0 0 0 0 0.5u 3u)
SYMBOL voltage -864 64 R0
WINDOW 123 0 0 Left 0
WINDOW 39 0 0 Left 0
SYMATTR InstName V3
SYMATTR Value 0
SYMBOL voltage -864 224 R0
WINDOW 123 0 0 Left 0
WINDOW 39 0 0 Left 0
SYMATTR InstName V4
SYMATTR Value 5
SYMBOL voltage -1152 208 R0
WINDOW 123 0 0 Left 0
WINDOW 39 0 0 Left 0
SYMATTR InstName V5
SYMATTR Value 2
TEXT -1000 496 Left 2 !.include tsmc018.lib
TEXT -944 536 Left 2 !.tran 10u
